Mass Spectrum: Benzene, 1-ethenyl-3-methyl-
Formula: C9 H10
CAS: 100-80-1
Molecular weight: 118
m/z	RELATIVE INTENSITY
15	10
26	30
27	250
28	10
29	10
36	10
37	50
38	150
39	1001
40	110
41	140
42	10
43	80
44	10
45	20
46	10
49	30
50	410
51	801
52	230
53	150
54	10
55	20
56	10
57	260
58	891
59	230
60	10
61	90
62	280
63	721
64	140
65	801
66	100
67	10
73	30
74	190
75	190
76	150
77	641
78	410
79	70
80	10
84	10
85	40
86	80
87	90
88	40
89	470
90	190
91	2632
92	420
93	20
97	10
98	20
99	10
100	10
101	50
102	310
103	1181
104	110
105	10
109	10
110	10
111	10
114	40
115	2803
116	651
117	8878
118	9999
119	941
120	40
121	10
