Mass Spectrum: Benzene, 1-bromo-4-phenoxy-
Formula: C12 H9 Br O
CAS: 101-55-3
Molecular weight: 248
Origin: NIST Mass Spectrometry Data Center, 1998.
m/z	RELATIVE INTENSITY
26	40
27	90
37	110
38	420
39	840
40	50
41	10
49	80
50	1530
51	2370
52	130
53	70
55	40
57	140
60	10
61	140
62	420
63	1370
64	650
65	660
66	130
67	10
68	30
69	10
70	360
73	110
74	710
75	1060
76	1070
77	3840
78	280
79	40
80	10
81	20
82	10
84	770
86	40
87	60
88	50
89	150
90	30
91	110
92	190
93	120
94	230
95	30
98	10
99	10
100	10
101	20
102	60
103	20
105	20
107	20
110	10
111	10
113	110
114	130
115	2060
116	220
117	170
118	20
119	160
124	40
125	60
126	20
127	10
128	50
129	50
130	10
131	40
137	20
138	40
139	920
140	310
141	5379
142	700
143	530
144	40
145	480
146	30
151	50
152	20
154	10
155	250
156	20
157	240
158	20
168	1150
169	1000
170	140
171	140
172	330
173	140
174	320
175	20
180	10
193	20
195	20
206	10
208	10
219	110
220	470
221	160
222	470
223	60
224	10
248	9999
249	1770
250	9829
251	1520
252	110
