Mass Spectrum: Benzene, 1-methoxy-4-methyl-
Formula: C8 H10 O
CAS: 104-93-8
Molecular weight: 122
Origin: Japan AIST/NIMC Database- Spectrum MS-NW- 650
m/z	RELATIVE INTENSITY
14	10
15	109
26	60
27	329
28	60
29	30
37	50
38	119
39	619
40	50
41	129
42	20
43	40
49	30
50	369
51	739
52	419
53	379
54	20
55	40
56	40
57	30
60	20
61	90
62	139
63	349
64	99
65	459
66	40
67	10
69	10
70	20
71	10
73	10
74	70
75	50
76	50
77	2409
78	679
79	2039
80	139
83	20
85	20
86	30
87	20
89	169
90	149
91	1729
92	629
93	119
94	10
105	40
106	50
107	2699
108	239
109	10
120	40
121	3919
122	9999
123	839
124	50
