Mass Spectrum: Benzenemethanol, 4-methoxy-
Formula: C8 H10 O2
CAS: 105-13-5
Molecular weight: 138
Origin: Japan AIST/NIMC Database- Spectrum MS-NW-3758
m/z	RELATIVE INTENSITY
14	30
15	289
17	40
18	159
26	99
27	359
28	199
29	379
30	30
31	359
32	30
33	40
36	10
37	129
38	369
39	1279
40	279
41	979
42	50
43	99
44	20
45	20
49	60
50	629
51	1099
52	419
53	289
54	30
55	239
56	10
57	10
60	20
61	99
62	219
63	639
64	479
65	909
66	709
67	729
68	109
69	50
71	10
73	40
74	189
75	129
76	159
77	3499
78	1149
79	1499
80	119
81	109
82	10
85	10
86	30
87	30
88	20
89	349
90	119
91	639
92	519
93	159
94	2149
95	519
96	40
97	10
103	10
104	20
105	1189
106	649
107	2529
108	359
109	6449
110	629
111	50
119	80
120	129
121	4509
122	639
123	499
124	40
135	619
136	319
137	5889
138	9999
139	929
140	80
