Mass Spectrum: 5-Acetoxymethyl-2-furaldehyde
Formula: C8 H8 O4
CAS: 10551-58-3
Molecular weight: 168
Origin: Japan AIST/NIMC Database- Spectrum MS-NW-8915
m/z	RELATIVE INTENSITY
14	30
15	199
18	20
26	80
27	349
28	70
29	279
31	20
37	60
38	169
39	529
40	50
41	439
42	159
43	2749
44	70
45	30
49	10
50	209
51	599
52	659
53	1079
54	70
55	50
56	10
60	10
61	20
63	10
66	30
67	30
68	119
69	389
70	30
78	20
79	2719
80	479
81	669
82	40
83	10
95	99
96	50
97	869
98	70
108	40
109	2119
110	179
111	20
123	119
124	20
125	599
126	9999
127	679
128	80
167	30
168	119
169	20
