Mass Spectrum: Benzene, 1-chloro-4-methyl-
Formula: C7 H7 Cl
CAS: 106-43-4
Molecular weight: 126
Origin: NIST Mass Spectrometry Data Center, 1990.
m/z	RELATIVE INTENSITY
14	36
26	73
27	154
37	174
38	269
39	679
40	66
41	65
43	154
44	92
45	236
49	161
50	646
51	531
52	87
60	81
61	352
62	705
63	1597
64	289
65	1194
66	58
72	75
73	416
74	264
75	367
76	65
84	72
85	166
86	200
87	157
88	65
89	1335
90	65
91	9999
92	778
97	60
99	319
101	87
125	1292
126	3003
127	616
128	951
129	70
