Mass Spectrum: p-Chloroaniline
Formula: C6 H6 Cl N
CAS: 106-47-8
Molecular weight: 127
Origin: NIST Mass Spectrometry Data Center, 1998.
m/z	RELATIVE INTENSITY
25	10
26	40
27	40
28	70
29	10
35	20
36	30
37	190
38	300
39	500
40	110
41	280
42	70
44	100
45	380
47	40
48	20
49	120
50	280
51	210
52	380
53	60
54	90
60	70
61	280
62	430
63	940
64	640
65	2470
66	310
67	70
71	10
72	90
73	440
74	210
75	320
76	60
77	10
78	30
80	10
84	30
85	20
86	50
87	40
88	80
89	60
90	270
91	570
92	1860
93	130
97	20
98	30
99	690
100	1180
101	340
102	410
103	40
110	40
111	30
112	20
113	10
125	20
126	270
127	9999
128	880
129	3550
130	250
131	10
