Mass Spectrum: Pentane, 3,3-diethyl-
Formula: C9 H20
CAS: 1067-20-5
Molecular weight: 128
m/z	RELATIVE INTENSITY
25	10
26	60
27	1131
28	160
29	2012
30	50
38	10
39	540
40	80
41	2412
42	240
43	2532
44	90
45	10
50	10
51	40
52	20
53	210
54	50
55	861
56	170
57	9999
58	450
59	10
63	10
64	10
65	30
66	10
67	70
68	30
69	470
70	140
71	200
72	10
77	10
78	10
79	10
80	10
81	10
82	10
83	80
84	20
85	10
91	10
95	10
97	10
98	1131
99	1922
100	140
101	10
112	10
113	10
128	10
