Mass Spectrum: Octanal, 7-hydroxy-3,7-dimethyl-
Formula: C10 H20 O2
CAS: 107-75-5
Molecular weight: 172
m/z	RELATIVE INTENSITY
14	60
15	70
17	170
18	510
20	40
26	80
27	591
28	240
29	731
30	60
31	60
32	30
33	30
37	30
38	40
39	671
40	130
41	1912
42	430
43	4974
44	250
45	260
47	30
50	40
51	50
52	60
53	230
54	160
55	1241
56	791
57	621
58	340
59	9999
60	280
61	80
63	40
65	70
66	40
67	340
68	250
69	1321
70	370
71	3853
72	210
73	60
77	70
78	30
79	100
80	80
81	901
82	130
83	210
84	200
85	210
86	100
87	70
91	50
92	30
93	210
94	70
95	831
96	911
97	310
98	180
99	120
101	30
104	30
105	40
107	40
108	40
109	210
110	370
111	440
112	180
113	310
114	561
115	100
121	550
122	70
123	70
124	30
125	30
126	30
129	70
131	30
135	30
136	80
137	60
139	430
140	70
154	80
155	30
157	130
