Mass Spectrum: m-Chloroaniline
Formula: C6 H6 Cl N
CAS: 108-42-9
Molecular weight: 127
Origin: NIST Mass Spectrometry Data Center, 1998.
m/z	RELATIVE INTENSITY
15	10
25	10
26	50
27	50
28	40
29	10
30	10
31	10
35	30
36	40
37	260
38	480
39	810
40	140
41	360
42	120
43	10
44	150
45	510
47	40
48	30
49	160
50	340
51	300
52	590
53	90
54	110
60	100
61	380
62	580
63	1250
64	880
65	3070
66	400
67	60
71	10
72	70
73	410
74	230
75	340
76	80
77	20
78	40
80	10
84	30
85	30
86	80
87	50
88	110
89	70
90	310
91	700
92	2060
93	140
96	10
97	30
98	20
99	620
100	1160
101	320
102	400
103	40
110	30
111	20
112	20
113	10
125	20
126	200
127	9999
128	790
129	3310
130	230
131	10
