Mass Spectrum: Methyl Isobutyl Ketone
Formula: C6 H12 O
CAS: 108-10-1
Molecular weight: 100
Origin: NIST Mass Spectrometry Data Center, 1990.
m/z	RELATIVE INTENSITY
13	21
14	123
15	763
16	10
18	12
25	16
26	174
27	1062
28	158
29	1199
30	47
31	56
37	67
38	211
39	1305
40	264
41	2513
42	1038
43	9999
44	219
45	58
49	12
50	70
51	79
52	23
53	79
54	23
55	128
56	12
57	2372
58	3326
59	200
60	20
61	6
62	10
63	9
65	26
67	190
68	16
69	57
70	8
71	20
72	54
79	7
81	7
83	11
85	1363
86	72
100	1159
101	76
102	5
