Mass Spectrum: 1,4-Pentadiene, 3-methyl-
Formula: C6 H10
CAS: 1115-08-8
Molecular weight: 82
Origin: Japan AIST/NIMC Database- Spectrum MS-NW-6768
m/z	RELATIVE INTENSITY
14	20
15	60
25	20
26	239
27	1659
28	259
29	729
30	20
31	20
32	10
37	119
38	239
39	2449
40	469
41	3339
42	499
43	109
49	70
50	349
51	499
52	219
53	1159
54	1159
55	829
56	119
57	10
60	10
61	50
62	80
63	129
64	30
65	999
66	279
67	9999
68	569
69	20
73	10
74	20
75	10
77	169
78	30
79	409
80	60
81	1099
82	1309
83	90
