Mass Spectrum: 2-Undecanone
Formula: C11 H22 O
CAS: 112-12-9
Molecular weight: 170
Origin: Japan AIST/NIMC Database- Spectrum MS-NW- 699
m/z	RELATIVE INTENSITY
15	169
18	20
26	30
27	669
28	159
29	969
30	20
31	20
38	10
39	499
40	99
41	1689
42	489
43	5669
44	129
45	80
50	10
51	30
52	20
53	119
54	129
55	819
56	469
57	1129
58	9999
59	3119
60	119
65	20
66	10
67	179
68	159
69	389
70	359
71	2669
72	209
73	20
77	20
78	20
79	30
80	10
81	209
82	289
83	289
84	179
85	639
86	80
87	10
95	209
96	199
97	70
98	20
99	70
100	99
109	50
110	439
111	50
112	579
113	149
114	70
117	10
123	30
127	209
128	60
135	30
137	30
141	60
142	20
152	80
155	209
156	20
170	699
171	109
