Mass Spectrum: Benzene, 1-methyl-4-(1-methylethenyl)-
Formula: C10 H12
CAS: 1195-32-0
Molecular weight: 132
Origin: NIST Mass Spectrometry Data Center, 1990.
m/z	RELATIVE INTENSITY
14	142
15	233
26	111
27	605
28	1123
32	366
37	89
38	361
39	2098
40	288
41	420
50	862
51	1616
52	407
53	428
58	270
61	173
62	634
63	1721
64	993
65	2288
66	203
74	410
75	473
76	376
77	1242
78	559
79	300
85	79
86	188
87	243
88	120
89	1105
90	79
91	5435
92	2307
93	165
98	77
101	138
102	552
103	467
104	357
105	385
115	6340
116	1908
117	9999
118	1064
126	81
127	263
128	561
129	469
130	81
131	1802
132	8071
133	939
