Mass Spectrum: Cinnamaldehyde, .alpha.-pentyl-
Formula: C14 H18 O
CAS: 122-40-7
Molecular weight: 202
Origin: Japan AIST/NIMC Database- Spectrum MS-NW-2752
m/z	RELATIVE INTENSITY
14	40
15	40
16	20
26	70
27	1089
28	329
29	1419
30	30
31	50
32	30
37	20
38	80
39	1359
40	159
41	1769
42	129
43	449
44	50
45	20
50	289
51	879
52	209
53	499
54	249
55	759
56	80
57	309
58	20
60	10
61	30
62	159
63	579
64	129
65	779
66	99
67	529
68	129
69	349
70	70
71	70
72	20
73	10
74	139
75	209
76	219
77	1279
78	1149
79	319
80	40
81	339
82	179
83	239
84	40
85	229
86	50
87	80
88	50
89	479
90	99
91	7779
92	1089
93	229
94	30
95	669
96	189
97	80
98	50
99	30
100	10
101	80
102	479
103	759
104	1369
105	869
106	99
107	129
108	20
109	90
110	30
111	849
112	70
113	70
114	99
115	5849
116	3069
117	9999
118	1979
119	199
120	189
121	30
123	20
124	109
125	50
126	60
127	839
128	1589
129	9479
130	1829
131	4099
132	979
133	389
134	80
135	40
137	40
139	60
140	20
141	1439
142	469
143	479
144	329
145	4209
146	1369
147	219
148	30
150	10
151	10
152	60
153	109
154	80
155	769
156	169
157	129
158	379
159	1349
160	269
161	30
163	10
165	60
166	20
167	50
168	50
169	229
170	50
171	469
172	99
173	2149
174	439
175	50
177	10
178	10
179	20
180	20
181	10
182	20
183	50
184	169
185	50
186	239
187	119
188	20
199	10
200	50
201	3699
202	6949
203	1039
204	90
