Mass Spectrum: Ethanol, 2-phenoxy-
Formula: C8 H10 O2
CAS: 122-99-6
Molecular weight: 138
Origin: NIST Mass Spectrometry Data Center, 1992
m/z	RELATIVE INTENSITY
12	8
13	19
14	83
15	242
16	17
17	13
18	58
19	233
25	23
26	166
27	760
28	294
29	602
30	76
31	521
32	31
36	11
37	139
38	441
39	1508
40	349
41	60
42	94
43	348
44	100
45	1045
46	27
47	6
48	7
50	655
51	1662
52	152
53	89
54	18
55	203
56	7
60	15
61	69
62	174
63	395
64	200
65	1092
66	1884
67	128
68	32
73	28
74	164
75	100
76	15
77	2911
78	386
79	607
80	40
81	12
89	13
91	122
94	9999
95	1587
96	93
103	3
105	13
107	606
108	69
109	8
118	1
119	28
120	8
121	4
135	7
136	17
138	2859
139	238
140	23
