Mass Spectrum: 2-Octanol
Formula: C8 H18 O
CAS: 123-96-6
Molecular weight: 130
Origin: Japan AIST/NIMC Database- Spectrum MS-NW-5553
m/z	RELATIVE INTENSITY
15	70
17	10
18	60
19	80
26	30
27	649
28	149
29	699
30	20
31	159
38	20
39	419
40	70
41	1319
42	549
43	1319
44	639
45	9999
46	229
47	30
50	10
51	20
52	10
53	90
54	60
55	2109
56	729
57	619
58	249
59	80
60	20
65	10
67	70
68	80
69	569
70	609
71	179
72	10
73	10
77	10
79	10
81	30
82	70
83	279
84	439
85	80
86	30
95	10
96	10
97	569
98	60
107	10
108	10
111	10
112	219
113	30
115	209
116	20
128	10
129	30
