Mass Spectrum: 1-Methyl-3,3-diphenylurea
Formula: C14 H14 N2 O
CAS: 13114-72-2
Molecular weight: 226
Origin: NIST Mass Spectrometry Data Center, 1998.
m/z	RELATIVE INTENSITY
15	90
26	10
27	70
28	60
29	30
30	10
37	20
38	60
39	370
40	60
41	30
42	10
44	10
50	240
51	1290
52	160
53	20
54	20
55	20
56	80
57	160
58	880
59	30
61	10
62	50
63	250
64	190
65	480
66	740
67	50
69	10
70	30
71	20
73	10
74	70
75	80
76	130
77	1330
78	170
79	30
82	20
83	200
86	10
87	20
88	30
89	120
90	70
91	160
92	80
93	80
94	10
101	30
102	40
103	50
104	190
105	30
106	30
107	10
113	40
114	50
115	400
116	90
117	50
118	20
119	30
126	30
127	60
128	120
129	40
130	30
131	10
132	10
133	60
134	10
138	10
139	320
140	250
141	320
142	180
143	110
144	10
151	30
152	50
153	50
154	120
155	20
164	20
165	20
166	580
167	3090
168	5439
169	9999
170	1320
171	80
178	10
180	10
181	10
182	10
196	70
197	10
210	10
225	30
226	1190
227	190
228	20
