Mass Spectrum: Estragole
Formula: C10 H12 O
CAS: 140-67-0
Molecular weight: 148
Origin: NIST Mass Spectrometry Data Center, 1990.
m/z	RELATIVE INTENSITY
14	155
15	492
26	151
27	599
28	50
29	154
38	312
39	1310
40	144
41	400
50	1062
51	2143
52	979
53	619
54	90
55	768
61	163
62	587
63	1705
64	558
65	1296
66	187
73	83
74	455
75	399
76	573
77	4387
78	2677
79	2232
80	156
86	113
87	127
88	92
89	871
90	371
91	3058
92	454
93	189
102	521
103	1927
104	681
105	3000
106	330
107	304
115	2743
116	1342
117	4189
118	579
119	399
120	304
121	4327
122	371
131	565
132	477
133	2508
134	243
145	83
147	5991
148	9999
149	1012
