Mass Spectrum: Bicyclo[3.1.1]hept-2-ene, 2,6-dimethyl-6-(4-methyl-3-pentenyl)-
Formula: C15 H24
CAS: 17699-05-7
Molecular weight: 204
Origin: Mark Whitten, Florida Museum of Natural History, U. of Florida
m/z	RELATIVE INTENSITY
41	8848
42	544
43	1585
50	144
51	639
52	454
53	1965
55	3216
56	1110
57	554
63	179
65	1030
66	319
67	1310
69	4036
70	539
77	3191
78	754
79	2860
80	754
81	974
82	269
83	204
84	144
91	4376
92	1655
93	9999
94	1330
95	584
97	139
103	309
105	2590
106	499
107	3401
108	469
109	699
115	204
117	239
119	8568
120	1440
121	1190
122	299
123	219
133	484
134	324
135	384
136	234
147	269
148	299
161	734
162	179
189	334
204	359
205	60
