Mass Spectrum: 3-Cyclohexen-1-ol, 4-methyl-1-(1-methylethyl)-, (R)-
Formula: C10 H18 O
CAS: 20126-76-5
Molecular weight: 154
Origin: Philip Morris R&D
m/z	RELATIVE INTENSITY
36	38
37	1
38	36
39	696
40	192
41	1852
42	225
43	4504
44	165
45	137
46	14
47	5
49	2
50	48
51	198
52	80
53	715
54	93
55	2134
56	109
57	217
58	290
59	121
60	3
61	8
62	16
63	50
64	20
65	259
66	87
67	1321
68	1265
69	2152
70	448
71	9999
72	470
73	38
75	1
77	753
78	110
79	396
80	76
81	799
82	323
83	908
84	209
85	133
86	2338
87	195
88	6
89	15
91	821
92	725
93	3990
94	359
95	511
96	81
97	129
98	157
99	37
100	2
102	6
103	27
104	9
105	111
106	15
107	121
108	24
109	91
110	475
111	4803
112	371
113	21
115	17
117	32
119	184
120	15
121	348
122	33
123	26
124	7
125	263
126	35
134	48
135	13
136	1329
137	190
138	7
139	215
140	17
152	1
153	3
154	1539
155	179
156	12
