Mass Spectrum: 1,1'-Biphenyl, 3,3'-dichloro-
Formula: C12 H8 Cl2
CAS: 2050-67-1
Molecular weight: 222
Origin: NIST Mass Spectrometry Data Center, 1998.
m/z	RELATIVE INTENSITY
26	20
27	30
35	10
36	10
37	30
38	70
39	130
40	10
47	10
49	60
50	450
51	390
52	40
55	10
60	30
61	140
62	340
63	450
64	30
65	10
67	10
68	10
72	20
73	160
74	530
75	1390
76	840
77	140
78	20
80	150
81	60
84	50
85	140
86	220
87	230
88	50
89	30
93	930
94	330
96	10
97	80
98	300
99	330
100	110
101	230
102	100
103	10
108	20
109	40
110	110
111	450
112	250
113	160
114	80
115	10
120	10
121	30
122	70
123	110
124	50
125	290
126	420
127	80
128	10
132	10
133	10
134	10
135	10
136	130
137	40
138	70
139	20
146	10
147	30
148	30
149	170
150	1110
151	1610
152	5699
153	760
154	50
159	10
160	90
161	50
162	80
163	20
164	20
170	10
172	10
173	40
174	10
175	10
183	20
184	20
185	40
186	680
187	170
188	230
189	50
196	40
198	20
220	20
222	9999
223	1530
224	6929
225	950
226	1200
227	150
228	10
