Mass Spectrum: 1,1'-Biphenyl, 4-chloro-
Formula: C12 H9 Cl
CAS: 2051-62-9
Molecular weight: 188
Origin: NIST Mass Spectrometry Data Center, 1994
m/z	RELATIVE INTENSITY
14	9
15	14
26	72
27	175
29	6
35	13
36	20
37	68
38	141
39	308
40	9
43	3
47	10
50	547
51	602
52	114
53	16
55	10
56	8
57	3
61	129
62	327
63	806
65	31
66	4
67	8
68	52
69	23
73	131
74	489
75	775
76	1556
78	55
79	5
80	30
81	110
82	35
84	25
85	84
86	162
87	202
88	63
89	76
90	9
91	5
93	88
94	322
95	101
97	53
98	186
99	191
100	90
101	202
102	178
103	32
108	13
109	27
110	58
111	60
112	42
113	128
114	114
115	62
116	6
120	8
121	19
122	48
123	47
125	178
126	409
127	353
128	80
129	7
136	86
137	33
138	54
139	37
140	3
146	5
147	7
149	183
150	554
151	1525
152	4264
153	2499
154	277
155	16
160	36
162	109
163	13
164	37
165	4
173	27
174	3
175	10
186	90
188	9999
189	1636
190	3466
191	427
192	26
