Mass Spectrum: 3-Chlorobiphenyl
Formula: C12 H9 Cl
CAS: 2051-61-8
Molecular weight: 188
Origin: T.L.Hayes, Battelle Columbus Laboratories, Columbus, OH 43221
m/z	RELATIVE INTENSITY
34	21
35	21
36	75
37	81
38	155
39	400
40	237
41	28
42	14
43	24
44	32
45	9
47	4
49	84
50	744
51	872
52	154
53	13
55	23
56	36
57	33
60	17
61	175
62	401
63	1423
64	72
65	51
68	81
69	45
71	11
72	6
73	195
74	653
75	1245
76	3356
77	654
78	90
80	32
81	229
82	73
84	37
85	110
86	205
87	263
88	69
89	94
91	25
92	20
93	142
94	523
95	177
96	10
97	48
98	216
99	214
100	96
101	248
102	210
103	21
108	5
109	19
110	52
111	63
112	28
113	145
114	125
115	63
121	11
122	26
123	30
124	14
125	174
126	509
127	432
128	81
135	7
136	69
137	17
138	43
139	24
147	15
148	9
149	163
150	593
151	1495
152	5315
153	2491
154	281
155	5
160	14
162	91
163	4
164	18
173	16
186	43
188	9999
189	1326
190	3157
191	375
192	12
