Mass Spectrum: Acenaphthylene
Formula: C12 H8
CAS: 208-96-8
Molecular weight: 152
Origin: Japan AIST/NIMC Database- Spectrum MS-NW-6148
m/z	RELATIVE INTENSITY
14	20
15	10
27	10
37	20
38	30
39	70
40	10
44	30
49	20
50	149
51	149
52	30
53	10
55	10
60	10
61	90
62	149
63	479
64	20
73	40
74	259
75	449
76	1019
77	99
78	30
84	10
85	40
86	90
87	109
88	20
89	10
97	20
98	129
99	119
100	70
101	60
102	90
109	20
110	30
111	40
112	10
113	20
120	10
121	10
122	40
123	20
124	20
125	109
126	279
127	40
128	10
149	70
150	889
151	1379
152	9999
153	1529
154	419
155	50
