Mass Spectrum: 1,3-Cyclopentadiene, 5-(1-methylethylidene)-
Formula: C8 H10
CAS: 2175-91-9
Molecular weight: 106
Origin: NIST Mass Spectrometry Data Center, 1994
m/z	RELATIVE INTENSITY
13	21
15	623
16	25
26	306
27	1017
28	177
29	29
37	318
38	758
39	3120
40	389
41	748
42	27
43	49
44	28
50	942
51	1820
52	710
53	414
54	50
55	13
61	320
62	720
63	1572
64	394
65	2129
66	769
67	88
73	78
74	275
75	189
76	78
77	1551
78	1311
79	1414
80	135
84	18
85	58
86	111
87	78
88	18
89	845
90	18
91	9999
92	781
93	31
98	36
101	20
102	117
103	555
104	20
105	1947
106	4826
107	407
