Mass Spectrum: Octane, 3-methyl-
Formula: C9 H20
CAS: 2216-33-3
Molecular weight: 128
Origin: Japan AIST/NIMC Database- Spectrum MS-NW-3546
m/z	RELATIVE INTENSITY
15	20
26	30
27	599
28	40
29	1369
30	30
38	10
39	399
40	70
41	2029
42	449
43	2919
44	109
50	10
51	20
52	10
53	90
54	40
55	599
56	2159
57	9999
58	459
59	10
65	10
67	20
68	20
69	199
70	499
71	739
72	40
83	40
84	109
85	129
86	10
97	10
98	1249
99	899
100	70
112	20
113	60
128	129
129	10
