Mass Spectrum: 3,5,3',5'-Tetramethylbiphenyl
Formula: C16 H18
CAS: 25570-02-9
Molecular weight: 210
Origin: NIST Mass Spectrometry Data Center, 1994
m/z	RELATIVE INTENSITY
15	368
17	23
18	81
26	3
27	935
29	51
38	76
39	1105
40	133
41	276
50	226
51	774
52	212
53	300
54	28
58	40
62	131
63	621
64	159
65	367
66	42
67	27
70	89
71	41
74	30
75	218
76	588
77	933
78	368
79	244
80	30
81	27
82	364
83	391
86	48
87	112
88	184
89	1202
90	906
91	372
92	36
95	248
96	393
97	386
99	49
101	100
102	269
103	471
104	394
105	605
111	25
113	59
115	768
116	128
117	63
118	32
126	122
127	287
128	573
129	204
130	25
139	295
140	59
141	344
142	91
143	27
150	91
151	250
152	889
153	525
154	137
155	145
156	46
163	150
165	2931
166	647
167	388
168	63
169	50
175	27
176	251
177	266
178	1809
179	2405
180	2259
181	494
182	61
189	236
190	149
191	316
192	201
193	383
194	651
195	4214
196	708
197	47
207	33
210	9999
211	1733
212	147
