Mass Spectrum: 1,1'-Biphenyl, 3,3',4,4',5,5'-hexachloro-
Formula: C12 H4 Cl6
CAS: 32774-16-6
Molecular weight: 358
Origin: N. Todua, WGM, MMES
m/z	RELATIVE INTENSITY
41	125
42	125
44	251
47	188
48	125
49	188
50	188
55	125
57	188
60	188
61	251
62	188
63	125
71	125
72	188
73	313
74	313
75	188
78	188
79	188
84	313
85	251
86	251
87	188
90	188
91	188
94	125
95	125
96	188
97	251
98	313
99	188
107	188
108	313
109	616
111	502
112	188
114	188
115	125
118	125
119	188
120	188
121	251
122	188
123	188
126	439
127	439
128	251
132	188
133	251
134	188
135	188
136	125
142	125
143	188
144	679
145	867
146	564
147	313
148	188
149	188
156	188
157	188
158	188
159	125
161	188
162	251
163	188
164	188
165	188
168	125
169	188
170	125
171	188
179	251
180	376
181	313
182	313
183	313
184	188
185	188
192	125
193	188
194	125
195	125
202	125
203	188
204	125
205	188
206	188
207	125
216	188
217	251
218	679
219	251
220	564
221	188
222	188
228	188
229	125
230	188
241	125
252	376
253	376
254	439
255	376
256	251
257	188
258	188
288	1985
289	502
290	2675
291	502
292	1243
293	313
294	439
295	188
296	125
322	188
323	125
324	251
325	188
326	188
327	188
358	4660
359	679
360	9999
361	1369
362	7888
363	1055
364	3542
365	502
366	930
367	251
368	251
369	125
