Mass Spectrum: Chrysene, 3-methyl-
Formula: C19 H14
CAS: 3351-31-3
Molecular weight: 242
m/z	RELATIVE INTENSITY
37	10
38	40
39	180
40	20
41	50
42	10
43	40
44	30
45	10
50	100
51	110
52	20
53	10
55	20
56	20
57	40
61	10
62	70
63	150
64	20
65	20
67	10
68	10
69	10
70	10
71	20
73	10
74	100
75	100
76	40
77	30
78	20
79	30
80	20
81	30
82	20
83	10
85	20
86	80
87	130
88	60
89	30
91	10
93	30
94	90
95	70
97	10
98	70
99	70
100	110
101	50
102	10
105	30
106	120
107	170
108	150
109	10
110	40
111	50
112	100
113	290
114	30
115	20
117	10
118	100
119	320
120	561
121	1131
122	50
123	20
124	10
125	10
126	30
127	10
128	10
134	10
135	20
137	20
138	10
139	40
140	10
146	10
147	10
149	10
150	60
151	30
152	30
161	20
162	20
163	70
164	20
165	40
166	10
173	10
174	50
175	30
176	60
177	10
178	10
185	20
186	20
187	110
188	50
189	110
190	20
191	10
198	30
199	30
200	100
201	40
202	110
203	30
209	10
210	10
211	80
212	40
213	260
214	60
215	380
216	80
217	10
222	30
223	20
224	140
225	80
226	651
227	170
228	50
235	40
236	30
237	310
238	120
239	2082
240	731
241	1702
242	9999
243	2082
244	210
245	10
