Mass Spectrum: 1-Hexene, 3-methyl-
Formula: C7 H14
CAS: 3404-61-3
Molecular weight: 98
Origin: Japan AIST/NIMC Database- Spectrum MS-NW-4653
m/z	RELATIVE INTENSITY
14	10
15	109
26	169
27	2319
28	179
29	1909
30	40
37	50
38	129
39	2119
40	339
41	7219
42	1349
43	2139
44	90
49	20
50	159
51	269
52	119
53	879
54	819
55	9999
56	6469
57	519
58	10
61	10
62	30
63	50
65	99
66	40
67	539
68	309
69	7869
70	4079
71	229
72	10
74	10
77	60
78	10
79	70
80	10
81	99
82	70
83	1059
84	70
97	20
98	799
99	70
