Mass Spectrum: 1-Pentene, 3,3-dimethyl-
Formula: C7 H14
CAS: 3404-73-7
Molecular weight: 98
m/z	RELATIVE INTENSITY
12	20
13	40
14	150
15	871
16	20
24	10
25	20
26	410
27	3483
28	460
29	1481
30	30
31	10
32	10
36	10
37	90
38	260
39	2883
40	440
41	8107
42	510
43	1241
44	40
45	10
46	10
48	10
49	30
50	280
51	470
52	180
53	1091
54	290
55	4044
56	1591
57	150
58	10
60	10
61	20
62	50
63	90
64	10
65	160
66	80
67	581
68	390
69	9999
70	1191
71	290
72	20
73	10
74	10
75	10
77	50
78	10
79	50
80	10
81	70
82	20
83	1651
84	110
85	10
91	10
95	10
97	10
98	901
99	70
100	10
