Mass Spectrum: 1,1'-Biphenyl, 2',3,4-trichloro-
Formula: C12 H7 Cl3
CAS: 38444-86-9
Molecular weight: 256
Origin: Organic Synthesis Lab, MSU, Moscow.TRC 1363
m/z	RELATIVE INTENSITY
41	28
44	85
47	37
48	18
49	115
50	480
51	333
52	34
55	31
56	37
60	59
61	300
62	426
63	305
64	24
67	31
69	19
72	64
73	267
74	853
75	1441
77	78
79	98
80	151
81	57
82	14
84	157
85	289
86	302
87	199
88	52
92	385
93	1201
94	353
96	50
97	235
98	474
99	466
100	138
101	175
102	30
107	23
108	96
109	224
110	962
111	650
113	75
114	35
116	25
120	48
121	111
122	157
123	291
124	92
125	172
126	70
128	266
129	299
130	104
131	31
132	26
133	55
134	45
135	113
136	190
137	51
138	55
139	14
145	31
146	53
147	91
148	79
149	380
150	1809
151	1398
152	146
159	101
160	168
161	50
162	49
170	49
171	31
172	36
182	20
183	26
184	175
185	398
186	5276
187	856
188	1834
189	171
194	73
196	76
198	19
206	22
207	17
220	349
221	195
222	329
223	87
224	67
254	27
256	9838
257	1354
258	9999
259	1195
260	3179
261	413
262	338
263	46
