Mass Spectrum: Phenol, 4-bromo-2-chloro-
Formula: C6 H4 Br Cl O
CAS: 3964-56-5
Molecular weight: 206
Origin: Japan AIST/NIMC Database- Spectrum MS-NW-6835
m/z	RELATIVE INTENSITY
12	10
14	30
16	10
25	50
26	80
27	40
28	80
29	99
31	99
32	20
35	40
36	139
37	439
38	419
39	259
40	20
41	20
42	40
43	30
44	50
45	50
46	40
47	50
48	109
49	329
50	309
51	90
52	20
53	579
54	30
55	30
57	10
59	10
60	129
61	599
62	1019
63	4209
64	489
65	80
66	109
67	10
69	10
70	10
71	149
72	249
73	679
74	279
75	229
76	30
77	30
78	10
79	70
80	60
81	70
82	60
83	10
84	60
85	80
86	80
87	50
89	60
90	70
91	669
92	139
93	30
94	20
95	20
96	50
97	169
98	189
99	1319
100	139
101	489
102	30
103	279
104	369
105	99
106	20
107	10
108	20
109	30
110	20
111	10
112	10
115	20
116	50
117	139
118	50
119	139
120	10
121	10
126	299
127	619
128	159
129	219
130	20
131	20
133	10
135	10
140	10
141	40
142	879
143	169
144	859
145	159
146	10
151	40
152	20
153	50
154	10
155	20
157	10
162	80
163	10
164	60
166	10
169	10
170	629
171	70
172	609
173	60
174	10
177	179
178	20
179	239
180	20
181	60
182	10
184	10
186	10
203	10
205	50
206	7869
207	609
208	9999
209	719
210	2479
211	189
212	20
213	20
