Mass Spectrum: Heptane, 3,3-dimethyl-
Formula: C9 H20
CAS: 4032-86-4
Molecular weight: 128
Origin: NIST Mass Spectrometry Data Center, 1990.
m/z	RELATIVE INTENSITY
27	1925
28	972
29	2506
39	2129
41	5202
42	974
43	6916
44	285
51	237
52	134
53	791
55	3716
56	1451
57	9864
58	388
65	146
67	292
69	927
70	4744
71	9999
72	582
98	998
99	2380
100	208
113	534
