Mass Spectrum: 1,1'-Biphenyl, 3,3',4,5'-tetrachloro-
Formula: C12 H6 Cl4
CAS: 41464-48-6
Molecular weight: 290
Origin: Organic Synthesis Lab, MSU, Moscow.TRC 1308
m/z	RELATIVE INTENSITY
44	129
47	34
49	115
50	398
51	105
55	31
56	12
60	91
61	240
62	268
63	95
67	28
71	24
72	55
73	310
74	806
75	618
76	65
79	64
80	56
81	36
83	23
84	161
85	240
86	232
87	146
88	41
92	838
95	18
96	68
97	243
98	416
99	411
100	56
107	36
108	85
109	455
110	1251
111	813
113	50
114	20
115	40
116	18
120	43
121	76
122	161
123	236
124	69
125	37
126	22
127	339
128	419
129	150
130	22
132	31
133	95
134	84
135	143
136	34
137	32
144	29
145	255
146	318
147	278
148	165
149	383
150	896
151	118
157	26
158	31
159	46
160	60
161	24
170	148
171	28
172	110
173	22
174	19
182	32
183	116
184	647
185	565
186	250
187	198
194	71
196	53
198	20
218	69
219	159
220	3562
221	543
222	2265
223	280
224	369
225	42
230	24
254	154
255	54
256	203
257	40
258	70
290	8008
291	1055
292	9999
293	1262
294	4696
295	643
296	972
297	136
298	101
