Mass Spectrum: p-Bromofluorobenzene
Formula: C6 H4 Br F
CAS: 460-00-4
Molecular weight: 174
Origin: S.FACCHETTI EURATOM, C.C.R., ISPRA, ITALY
m/z	RELATIVE INTENSITY
25	32
26	69
27	25
28	5
31	204
36	61
37	356
38	326
39	113
44	42
45	73
47	216
48	44
49	263
50	1351
51	435
52	44
55	14
56	87
57	146
60	59
61	269
62	259
63	178
64	7
67	16
68	657
69	665
70	65
72	40
73	267
74	924
75	3381
76	297
77	18
79	133
80	85
81	140
82	73
87	746
88	712
91	20
92	164
93	271
94	817
95	9879
96	706
97	32
104	30
106	30
117	40
118	16
119	40
120	14
127	28
128	74
129	26
130	73
141	32
142	14
143	30
145	12
155	32
157	32
173	71
174	9999
175	720
176	9741
177	651
178	20
