Mass Spectrum: 3,3-Dimethylbutane-2-ol
Formula: C6 H14 O
CAS: 464-07-3
Molecular weight: 102
Origin: TEXAS A&M UNIVERSITY, COLLEGE STATION, TEXAS, USA
m/z	RELATIVE INTENSITY
14	37
15	313
16	25
17	44
18	200
19	119
26	106
27	1125
28	500
29	1750
30	50
31	156
32	100
37	44
38	119
39	1125
40	187
41	3875
42	306
43	875
44	437
45	7500
46	169
47	100
49	19
50	75
51	131
52	37
53	206
54	44
55	500
56	6250
57	9999
58	437
59	162
65	25
67	75
68	25
69	1750
70	156
71	194
72	75
83	137
84	75
85	94
86	19
87	2875
88	169
100	37
101	56
102	625
103	56
