Mass Spectrum: 1,3-Dioxan-5-ol
Formula: C4 H8 O3
CAS: 4740-78-7
Molecular weight: 104
Origin: Chuck Anderson, Aldrich Chemical Co.
m/z	RELATIVE INTENSITY
13	15
14	421
15	3713
16	202
17	14
18	118
19	1575
26	466
27	1920
28	928
29	6666
30	520
31	5579
32	87
38	73
39	191
40	17
41	124
42	1127
43	6376
44	6013
45	9999
46	198
47	317
55	165
56	190
57	729
58	241
71	251
72	1249
73	8115
74	2898
75	928
86	112
103	629
