Mass Spectrum: Phenol, 4-(2-propenyl)-
Formula: C9 H10 O
CAS: 501-92-8
Molecular weight: 134
Origin: P.A. Leclercq, Lab. Instrum. Anal., Tech. Univ. Eindhoven, Netherlands
m/z	RELATIVE INTENSITY
14	279
15	299
16	129
17	119
18	319
26	569
27	2069
29	669
31	119
37	259
38	619
39	3139
40	359
41	919
42	159
43	699
44	89
50	1019
51	2089
52	739
53	1189
54	179
55	1359
56	119
57	99
58	79
59	109
61	169
62	489
63	959
64	249
65	1099
66	999
67	339
68	239
69	379
71	79
73	89
74	369
75	289
77	4249
78	1379
79	1959
80	239
81	199
82	89
84	119
85	89
86	89
87	139
89	459
91	2239
92	329
93	139
94	329
95	89
102	199
103	1089
105	3369
107	5820
108	469
115	1599
116	769
117	1029
118	249
119	1199
120	149
131	699
133	8640
134	9999
135	979
136	45
