Mass Spectrum: 3-Pentanol
Formula: C5 H12 O
CAS: 584-02-1
Molecular weight: 88
Origin: NIST Mass Spectrometry Data Center, 1990.
m/z	RELATIVE INTENSITY
12	9
14	55
15	239
17	5
18	6
19	43
25	25
26	322
27	1447
28	458
29	1455
30	5
31	4335
32	59
33	22
37	33
38	106
39	622
40	22
41	2567
42	385
43	653
44	122
45	302
46	11
49	10
50	41
51	43
52	18
53	88
54	10
55	338
56	10
57	717
58	1164
59	9999
60	321
61	32
62	13
63	7
65	8
67	8
69	27
70	35
71	37
86	9
87	40
88	14
