Mass Spectrum: Benzoic acid, 3-bromo-
Formula: C7 H5 Br O2
CAS: 585-76-2
Molecular weight: 200
Origin: NIST Mass Spectrometry Data Center, 1992
m/z	RELATIVE INTENSITY
25	63
26	146
29	90
36	103
37	574
38	1100
39	791
44	92
45	568
46	55
48	93
49	456
50	3511
51	1210
52	254
53	205
54	56
60	314
62	180
63	281
64	296
65	1555
66	163
72	67
73	541
74	2085
75	2927
76	2501
77	1191
79	229
80	54
81	108
82	53
86	109
87	124
92	258
93	254
101	53
103	107
104	87
105	128
117	73
121	274
128	84
129	108
130	55
131	131
143	80
145	83
155	3254
156	449
157	3058
158	201
172	165
173	45
174	151
183	6324
184	963
185	6551
186	469
198	45
200	9999
201	1303
202	9519
203	817
204	60
