Mass Spectrum: Heptane, 3-methyl-
Formula: C8 H18
CAS: 589-81-1
Molecular weight: 114
Origin: NIST Mass Spectrometry Data Center
m/z	RELATIVE INTENSITY
15	160
17	20
26	150
27	2582
29	3443
30	80
31	70
37	20
39	1712
40	270
41	5845
42	951
43	9999
44	340
50	50
51	120
52	40
53	310
54	110
55	1201
56	4744
57	7186
58	300
63	20
65	30
67	70
68	20
69	510
70	370
71	370
77	20
84	4374
85	5675
86	380
98	90
99	90
114	1041
115	80
