Mass Spectrum: 4-Octanol
Formula: C8 H18 O
CAS: 589-62-8
Molecular weight: 130
Origin: Japan AIST/NIMC Database- Spectrum MS-NW-1346
m/z	RELATIVE INTENSITY
14	10
15	129
17	10
18	30
26	70
27	1659
28	199
29	1549
30	70
31	1359
32	40
37	10
38	40
39	779
40	109
41	4179
42	479
43	3719
44	969
45	1219
46	30
50	20
51	40
52	20
53	149
54	70
55	9579
56	739
57	929
58	259
59	99
65	20
67	99
68	60
69	9999
70	879
71	159
72	669
73	7869
74	369
75	30
77	10
79	10
81	10
82	20
83	149
84	80
85	40
86	369
87	5039
88	279
89	20
97	20
99	20
112	369
113	40
129	70
130	10
