Mass Spectrum: Heptane, 4-methyl-
Formula: C8 H18
CAS: 589-53-7
Molecular weight: 114
Origin: NIST Mass Spectrometry Data Center, 1990.
m/z	RELATIVE INTENSITY
15	92
27	1873
28	492
29	1685
39	2099
40	447
41	4100
42	2134
43	9999
44	377
50	71
51	163
52	64
53	402
54	64
55	2234
56	448
57	1863
58	87
65	77
67	112
70	6825
71	6042
72	347
84	497
85	551
98	139
99	106
114	480
115	54
