Mass Spectrum: Phenylethyl Alcohol
Formula: C8 H10 O
CAS: 60-12-8
Molecular weight: 122
Origin: NIST Mass Spectrometry Data Center, 1990.
m/z	RELATIVE INTENSITY
14	16
15	25
17	9
18	23
19	14
26	61
27	250
28	49
29	192
30	9
31	485
32	5
37	80
38	252
39	1201
40	109
41	237
42	19
43	88
44	47
45	19
47	7
49	56
50	481
51	889
52	226
53	86
55	22
60	19
61	88
62	240
63	658
64	7
65	2284
66	148
73	27
74	137
75	91
76	80
77	567
78	457
79	130
80	19
84	8
85	28
86	34
87	32
89	380
91	9999
92	5571
93	443
94	22
98	16
101	17
102	76
103	295
104	222
105	43
119	9
120	39
122	2238
123	200
124	8
