Mass Spectrum: Phenol, 3,4,5-trichloro-
Formula: C6 H3 Cl3 O
CAS: 609-19-8
Molecular weight: 196
Origin: Japan AIST/NIMC Database- Spectrum MS-NW-6716
m/z	RELATIVE INTENSITY
12	20
14	30
16	10
24	20
25	40
26	50
27	20
28	109
29	189
31	80
32	20
35	159
36	239
37	419
38	149
39	60
40	10
41	30
42	30
43	20
44	329
45	50
47	139
48	589
49	379
50	129
51	40
52	10
53	359
54	30
55	20
56	20
57	10
59	20
60	289
61	899
62	1209
63	679
64	60
65	40
66	349
67	219
68	50
70	10
71	139
72	389
73	889
74	259
75	249
76	30
77	30
78	10
79	10
80	419
81	289
82	60
83	389
84	259
85	259
86	90
87	169
88	20
89	90
90	99
91	119
92	10
94	20
95	70
96	279
97	2449
98	489
99	1039
100	189
101	20
102	20
106	40
107	489
108	149
109	349
110	50
111	70
113	10
117	20
118	30
119	40
120	20
121	20
122	10
123	30
124	30
125	70
126	80
127	30
128	30
130	10
131	119
132	1159
133	3149
134	919
135	1989
136	259
137	339
138	20
141	20
142	10
143	50
144	20
145	30
146	20
147	10
149	10
151	10
152	20
154	10
156	10
160	779
161	189
162	529
163	119
164	99
165	20
166	10
167	349
168	99
169	349
170	90
171	119
172	30
173	20
194	20
195	50
196	9999
197	709
198	9569
199	649
200	3129
201	229
202	369
203	30
