Mass Spectrum: 3,3'-Dimethylbiphenyl
Formula: C14 H14
CAS: 612-75-9
Molecular weight: 182
Origin: Japan AIST/NIMC Database- Spectrum MS-NW-8383
m/z	RELATIVE INTENSITY
15	10
27	80
28	50
29	10
38	20
39	289
40	30
41	40
44	10
45	10
50	80
51	209
52	40
53	50
57	10
61	10
62	80
63	299
64	129
65	229
66	20
69	50
70	20
74	70
75	109
76	399
77	249
78	50
79	20
81	40
82	189
83	189
86	40
87	60
88	80
89	669
90	549
91	509
92	30
98	20
99	10
101	20
102	60
103	40
104	20
105	40
111	10
113	40
114	20
115	419
116	60
117	10
126	60
127	99
128	239
129	70
137	10
138	10
139	199
140	30
141	199
142	50
150	40
151	149
152	819
153	289
154	50
155	50
156	10
162	10
163	99
164	159
165	2209
166	1369
167	3069
168	419
169	30
176	60
177	50
178	259
179	189
180	80
181	1829
182	9999
183	1519
184	109
