Mass Spectrum: 4,4'-Dimethylbiphenyl
Formula: C14 H14
CAS: 613-33-2
Molecular weight: 182
Origin: Japan AIST/NIMC Database- Spectrum MS-NW-4599
m/z	RELATIVE INTENSITY
15	10
26	10
27	90
28	20
29	10
38	30
39	249
40	20
41	50
42	10
43	20
50	90
51	179
52	40
53	50
56	10
57	20
61	20
62	80
63	249
64	109
65	179
66	20
69	30
70	10
74	70
75	90
76	279
77	219
78	60
79	20
81	20
82	129
83	129
85	10
86	30
87	50
88	60
89	489
90	549
91	549
92	30
98	20
99	20
101	20
102	60
103	40
104	20
105	40
113	30
114	10
115	359
116	60
117	10
126	50
127	99
128	229
129	70
138	10
139	159
140	30
141	209
142	50
143	10
150	30
151	109
152	609
153	239
154	50
155	60
156	10
162	10
163	70
164	119
165	2189
166	1089
167	3529
168	509
169	30
176	50
177	50
178	279
179	229
180	169
181	2649
182	9999
183	1499
184	109
