Mass Spectrum: Thiophene, 3-methyl-
Formula: C5 H6 S
CAS: 616-44-4
Molecular weight: 98
Origin: NIST Mass Spectrometry Data Center, 1990.
m/z	RELATIVE INTENSITY
12	13
13	18
14	27
15	47
18	8
25	56
26	201
27	488
28	21
31	3
32	56
33	14
36	36
37	242
38	327
39	811
40	45
41	25
45	1742
46	132
47	152
48	80
49	266
50	451
51	409
52	148
53	889
54	69
56	41
57	271
58	373
59	122
60	54
61	104
62	131
63	144
64	25
65	188
66	14
68	104
69	683
70	179
71	462
72	82
73	15
81	99
82	111
83	40
84	14
92	30
93	76
94	16
95	70
96	14
97	9999
98	5305
99	751
100	229
101	22
