Mass Spectrum: Pentane, 3-ethyl-
Formula: C7 H16
CAS: 617-78-7
Molecular weight: 100
Origin: Japan AIST/NIMC Database- Spectrum MS-NW-3793
m/z	RELATIVE INTENSITY
15	40
26	60
27	989
28	50
29	1429
30	30
37	10
38	40
39	639
40	80
41	1609
42	679
43	9999
44	349
50	30
51	50
52	20
53	139
54	40
55	1489
56	359
57	449
58	20
62	10
63	10
65	10
67	20
69	80
70	4839
71	5059
72	279
84	20
85	40
100	169
101	10
