Mass Spectrum: Hexane, 3-ethyl-
Formula: C8 H18
CAS: 619-99-8
Molecular weight: 114
m/z	RELATIVE INTENSITY
1	10
2	30
12	10
13	10
14	10
15	170
16	10
26	80
27	1932
28	270
29	1982
30	50
37	10
38	20
39	841
40	130
41	2282
42	701
43	9999
44	340
45	10
50	10
51	40
52	20
53	190
54	80
55	1161
56	591
57	1241
58	50
59	10
63	10
64	10
65	20
66	10
67	50
68	10
69	250
70	1291
71	1351
72	70
73	10
77	10
78	10
79	10
80	10
81	10
82	10
83	20
84	2262
85	2853
86	180
87	10
91	10
93	10
98	10
99	10
113	10
114	160
115	20
