Mass Spectrum: 1,1'-Biphenyl, 3-methyl-
Formula: C13 H12
CAS: 643-93-6
Molecular weight: 168
Origin: Japan AIST/NIMC Database- Spectrum MS-NW-3088
m/z	RELATIVE INTENSITY
26	10
27	70
37	10
38	40
39	269
40	30
41	20
44	10
50	129
51	259
52	60
53	30
55	10
57	70
58	10
61	20
62	109
63	299
64	60
65	179
66	30
69	109
70	80
71	70
73	10
74	109
75	129
76	229
77	179
78	40
81	60
82	319
83	409
84	229
85	10
86	50
87	80
88	30
89	249
90	139
91	459
92	30
98	40
99	20
100	10
101	40
102	119
103	40
109	10
110	20
111	10
113	40
114	30
115	409
116	50
125	10
126	99
127	129
128	279
129	50
137	10
138	10
139	219
140	40
141	249
142	50
149	10
150	50
151	219
152	1329
153	1019
154	179
155	20
162	10
163	109
164	139
165	1569
166	649
167	4549
168	9999
169	1389
170	90
