Mass Spectrum: 2,3',4,4',5'-Pentachloro-1,1'-biphenyl
Formula: C12 H5 Cl5
CAS: 65510-44-3
Molecular weight: 324
Origin: Organic Synthesis Lab, MSU, Moscow.TRC 1270
m/z	RELATIVE INTENSITY
44	258
49	306
50	545
51	258
60	146
61	891
62	545
63	148
71	74
72	231
73	1158
74	1661
75	676
76	77
79	360
84	618
85	630
86	579
87	306
92	1324
93	334
94	75
95	75
96	267
97	584
98	1082
99	685
100	98
107	153
108	552
109	2519
110	2026
111	527
112	61
114	114
115	158
116	64
119	79
120	194
121	288
122	568
123	368
124	137
127	3369
128	3113
129	864
130	131
131	116
132	289
133	248
134	229
135	184
136	99
143	107
144	694
145	933
146	719
147	497
148	433
149	512
150	75
156	91
157	122
158	152
159	126
160	114
162	469
163	748
164	574
165	245
169	111
170	208
171	147
172	119
181	131
182	199
183	477
184	2054
185	347
186	569
194	118
195	75
207	65
217	92
218	741
219	577
220	538
221	305
222	135
230	87
254	3922
255	670
256	3452
257	572
258	1324
259	208
260	162
288	98
290	208
291	130
292	127
293	71
324	6138
325	938
326	9999
327	1234
328	5417
329	748
330	1730
331	342
332	303
