Mass Spectrum: Benzoic acid, 4-chloro-
Formula: C7 H5 Cl O2
CAS: 74-11-3
Molecular weight: 156
Origin: Japan AIST/NIMC Database- Spectrum MS-NW-1834
m/z	RELATIVE INTENSITY
14	20
16	10
17	10
18	30
25	30
26	90
27	169
28	99
29	70
31	10
35	30
36	109
37	609
38	929
39	489
40	20
42	10
43	10
44	60
45	349
46	60
47	40
48	40
49	309
50	2629
51	1329
52	119
53	159
54	20
55	259
56	90
60	80
61	209
62	119
63	199
64	379
65	519
66	40
67	10
69	209
70	70
71	10
72	70
73	489
74	1509
75	3359
76	869
77	739
78	50
79	10
84	149
85	379
86	80
87	119
88	10
89	10
92	30
93	40
99	90
100	50
101	40
102	20
103	20
104	99
105	30
109	50
110	189
111	4949
112	429
113	1589
114	119
126	20
127	20
128	289
129	30
130	90
138	60
139	9999
140	789
141	3279
142	289
143	20
144	10
155	30
156	8529
157	659
158	2809
159	219
160	20
