Mass Spectrum: 1,2-Cyclopentanedione, 3-methyl-
Formula: C6 H8 O2
CAS: 765-70-8
Molecular weight: 112
Origin: RADIAN CORP
m/z	RELATIVE INTENSITY
14	20
15	110
16	30
18	30
25	70
26	510
27	1690
29	1070
30	50
31	170
36	30
37	210
38	390
39	2060
40	460
41	3620
42	1280
43	2570
44	450
45	100
50	460
52	350
53	1020
54	530
55	4900
56	2730
57	460
58	100
61	50
62	50
63	90
64	20
65	430
66	680
67	210
68	70
69	4720
70	480
71	270
80	70
81	110
82	250
83	2570
84	310
85	70
93	30
94	20
95	80
97	690
98	20
108	60
110	120
111	460
112	9999
113	690
114	50
