Mass Spectrum: 3-Pentanol, 3-methyl-
Formula: C6 H14 O
CAS: 77-74-7
Molecular weight: 102
Origin: NIST Mass Spectrometry Data Center
m/z	RELATIVE INTENSITY
14	10
15	80
19	20
26	100
27	781
28	140
29	851
30	30
31	400
37	10
38	40
39	520
40	60
41	871
42	210
43	2632
44	170
45	2542
46	60
47	10
49	10
50	70
51	100
52	40
53	300
55	5515
56	380
57	731
58	110
59	90
62	10
63	20
65	30
66	10
67	50
69	821
70	50
71	120
73	9999
74	611
75	40
77	10
83	10
84	80
85	420
87	1752
88	100
89	10
