Mass Spectrum: 9,10-Dimethylanthracene
Formula: C16 H14
CAS: 781-43-1
Molecular weight: 206
Origin: NIST Mass Spectrometry Data Center, 1990.
m/z	RELATIVE INTENSITY
14	31
15	22
16	11
26	21
27	168
28	198
29	6
32	56
38	44
39	213
40	21
41	17
44	30
50	209
51	365
52	72
53	24
57	4
61	31
62	189
63	487
64	56
65	65
66	4
67	22
68	14
70	86
74	290
75	466
76	755
77	462
78	76
79	5
82	172
83	591
85	34
86	163
87	368
88	792
89	1620
91	43
95	1076
98	149
99	161
100	480
101	1290
102	598
103	843
109	12
110	68
111	84
112	20
113	109
114	34
115	192
116	23
121	5
122	37
123	37
124	17
125	51
126	238
127	464
128	271
129	46
134	14
135	15
136	9
137	61
138	44
139	233
140	31
141	15
146	8
148	7
149	63
150	294
151	348
152	471
153	86
154	6
161	44
162	102
163	334
164	230
165	912
166	139
167	10
174	113
175	125
176	545
177	249
178	950
179	285
180	28
185	17
186	40
187	256
188	254
189	2040
190	1219
191	6751
192	984
193	74
198	28
199	58
200	390
201	363
202	1729
203	1466
204	1070
205	3198
206	9999
207	1701
208	126
209	8
