Mass Spectrum: 2-Propenamide
Formula: C3 H5 N O
CAS: 79-06-1
Molecular weight: 71
Origin: Japan AIST/NIMC Database- Spectrum MS-NW-1539
m/z	RELATIVE INTENSITY
12	40
13	70
14	119
15	159
16	499
17	679
18	40
24	99
25	529
26	2749
27	9379
28	1839
29	239
30	1289
31	20
32	20
36	40
37	80
38	169
39	139
40	199
41	209
42	269
43	2719
44	9999
45	489
46	20
50	80
51	299
52	519
53	619
54	349
55	7269
56	249
57	10
70	409
71	9989
72	489
73	30
