Mass Spectrum: 2-Nonanone
Formula: C9 H18 O
CAS: 821-55-6
Molecular weight: 142
Origin: NIST Mass Spectrometry Data Center, 1990.
m/z	RELATIVE INTENSITY
15	507
26	158
27	1523
28	115
29	1466
31	63
39	1256
40	386
41	2921
42	1145
43	9999
44	293
45	128
51	108
53	281
54	138
55	961
56	367
57	2239
58	9117
59	2132
60	95
67	269
68	108
69	233
70	95
71	2233
72	163
81	84
82	329
83	105
84	350
85	420
86	120
95	123
99	229
100	207
109	88
113	158
127	319
142	715
143	80
