Mass Spectrum: Acenaphthene
Formula: C12 H10
CAS: 83-32-9
Molecular weight: 154
Origin: NIST Mass Spectrometry Data Center, 1990.
m/z	RELATIVE INTENSITY
14	60
27	104
28	64
32	62
38	106
39	257
50	425
51	586
52	90
61	118
62	404
63	1204
64	396
65	52
73	64
74	648
75	1014
76	2955
77	979
85	81
86	241
87	320
88	86
89	117
98	279
99	212
100	94
101	169
102	192
110	60
111	53
113	90
115	97
122	55
125	122
126	489
127	303
128	149
139	72
149	104
150	966
151	1899
152	5079
153	9999
154	8272
155	987
156	57
