Mass Spectrum: Phenanthrene, 3-methyl-
Formula: C15 H12
CAS: 832-71-3
Molecular weight: 192
Origin: G.A.M.S., PARIS, FRANCE.
m/z	RELATIVE INTENSITY
26	4
27	20
38	8
39	70
40	2
41	4
50	40
51	70
52	10
53	4
55	4
56	4
61	10
62	50
63	180
64	30
65	20
67	4
68	10
69	30
70	40
74	90
75	120
76	60
77	30
78	60
80	3
81	110
82	320
83	290
85	6
86	50
87	100
88	170
89	70
90	4
91	3
93	30
94	390
95	890
96	1210
97	20
98	50
99	50
100	20
101	40
102	30
103	10
110	20
111	30
112	8
113	30
114	10
115	60
116	4
122	10
123	8
124	4
125	10
126	40
127	10
128	10
137	30
138	20
139	120
140	10
141	8
149	10
150	120
151	100
152	170
153	30
154	3
161	20
162	40
163	230
164	130
165	660
166	100
167	6
174	40
175	50
176	260
177	60
178	20
179	4
185	10
186	30
187	240
188	180
189	2260
190	920
191	4350
192	9999
193	1580
194	130
195	8
