Mass Spectrum: Benzenamine, 3-chloro-2-methyl-
Formula: C7 H8 Cl N
CAS: 87-60-5
Molecular weight: 141
Origin: Japan AIST/NIMC Database- Spectrum MS-NW-1439
m/z	RELATIVE INTENSITY
15	30
26	60
27	239
28	249
29	60
30	429
35	10
36	30
37	109
38	189
39	439
40	60
41	129
42	219
43	20
44	20
47	10
48	10
49	70
50	469
51	969
52	889
53	329
54	169
55	10
57	20
60	20
61	99
62	159
63	349
64	90
65	159
66	90
67	30
69	10
70	229
71	80
72	30
73	119
74	149
75	219
76	179
77	1879
78	729
79	889
80	149
81	20
84	10
85	30
86	40
87	60
88	30
89	749
90	99
91	40
97	20
99	50
100	50
101	20
102	80
103	30
104	739
105	319
106	7249
107	589
108	20
111	40
112	50
113	179
114	60
115	60
116	20
123	30
124	199
125	90
126	70
127	30
138	50
139	20
140	3199
141	9999
142	1719
143	3169
144	229
