Mass Spectrum: Fluoranthene, 3-nitro-
Formula: C16 H9 N O2
CAS: 892-21-7
Molecular weight: 247
Origin: J.N.PITTS, STATEWIDE AIR POLLUT. RES. CENT., UNIV. CALIF., USA
m/z	RELATIVE INTENSITY
50	200
51	200
61	100
62	200
63	300
74	600
75	400
76	100
77	100
82	100
85	100
86	300
87	1100
89	100
94	300
98	500
99	1000
100	3000
109	100
110	200
111	200
113	100
122	200
125	100
126	100
134	100
135	100
137	100
139	100
146	100
147	100
148	100
149	300
150	600
151	300
161	100
162	100
163	300
164	200
165	100
173	200
174	900
175	600
176	100
177	100
185	100
186	200
187	800
188	800
189	4500
190	1400
191	1800
192	300
197	200
198	1000
199	1600
200	7100
201	7000
202	1300
203	200
205	100
214	100
215	100
217	3100
218	600
219	200
231	100
247	9999
248	1900
249	200
