Mass Spectrum: Pentane, 3-methyl-
Formula: C6 H14
CAS: 96-14-0
Molecular weight: 86
Origin: Japan AIST/NIMC Database- Spectrum MS-NW-1215
m/z	RELATIVE INTENSITY
15	70
26	99
27	1329
28	219
29	3909
30	90
37	20
38	50
39	919
40	119
41	5339
42	359
43	2539
44	80
50	60
51	80
52	30
53	179
54	50
55	669
56	7669
57	9999
58	449
63	10
65	10
67	20
69	60
70	159
71	569
72	30
85	70
86	299
87	20
