Mass Spectrum: Benzene, 1-chloro-4-(trifluoromethyl)-
Formula: C7 H4 Cl F3
CAS: 98-56-6
Molecular weight: 180
Origin: Japan AIST/NIMC Database- Spectrum MS-NW-4315
m/z	RELATIVE INTENSITY
14	10
20	20
25	10
26	50
27	70
31	189
35	20
36	60
37	279
38	299
39	109
43	10
44	10
45	20
47	30
48	30
49	179
50	1309
51	469
52	30
53	20
55	30
56	50
57	229
58	10
59	20
60	50
61	149
62	239
63	259
64	10
65	30
66	10
67	10
68	80
69	479
70	40
71	10
72	239
73	269
74	709
75	1819
76	359
77	40
79	30
80	239
81	169
82	10
84	90
85	179
86	60
87	70
88	30
90	70
91	60
92	30
93	109
94	169
95	839
96	60
97	20
98	20
99	269
100	60
101	50
103	20
104	30
105	20
106	20
107	60
108	20
109	80
110	30
111	589
112	50
113	189
114	30
115	10
116	10
117	20
118	30
119	139
120	10
123	50
124	20
125	759
126	329
127	30
129	60
130	2409
131	179
132	749
133	60
135	30
141	30
143	149
144	189
145	4479
146	359
147	20
148	10
159	40
160	80
161	3769
162	319
163	1209
164	99
179	439
180	9999
181	979
182	3329
183	259
184	10
