Mass Spectrum: p-Cumenol
Formula: C9 H12 O
CAS: 99-89-8
Molecular weight: 136
Origin: NIST Mass Spectrometry Data Center, 1998.
m/z	RELATIVE INTENSITY
14	10
15	80
26	50
27	330
28	40
29	90
31	10
37	40
38	160
39	1030
40	150
41	420
42	40
43	100
44	10
45	70
46	60
49	20
50	260
51	600
52	180
53	410
54	40
55	290
56	10
57	10
58	10
59	110
62	210
63	510
64	150
65	1040
66	320
67	110
68	20
69	10
73	20
74	110
75	110
76	10
77	2410
78	320
79	230
80	20
81	60
82	10
85	10
86	20
87	30
88	10
89	180
90	10
91	2440
92	330
93	870
94	390
95	210
96	10
98	10
101	40
102	120
103	1690
104	160
105	120
106	20
107	520
108	50
109	10
115	70
116	20
117	20
118	50
119	280
120	10
121	9999
122	1090
123	70
131	10
133	20
134	30
135	140
136	3350
137	340
138	20
